FOLDERS DESCRIPTION
FILES --: TIENE LOS ARCHIVOS EXTERNOS NECESARIOS PARA LOS MONTAJES DE LOS MODELOS (SHAPES, DTM'S, ETC.)
Sources_Ecospace --: TIENE LOS CODIGOS FUENTES DE ECOSPACE MODIFICADOS PARA QUE SEAN FUNCIONALES PARA TELEMAC
1, 2, 3, ... --: TIENEN LAS DIFERENTES PRUEBAS Y ENSAYOS REALIZADAS

CON PYTHON 3 LA VARIABLE GRUF1 NO PUEDE SER INCLUIDA EN EL .CAS, FALLA LA SIMULACIÓN
