FOLDERS DESCRIPTION
FILES --: TIENE LOS ARCHIVOS EXTERNOS NECESARIOS PARA LOS MONTAES DE LOS MODELOS (SHAPES, DTM'S, ETC.)
Sources_Ecospace --: TIENE LOS CODIGOS FUENTES DE ECOSPACE MODIFICADOS PARA QUE SEAN FUNCIONALES PARA TELEMAC
1, 2, 3, ... --: TIENEN LAS DIFERENTES PRUEBAS Y ENSAYOS REALIZADAS
