TELEMAC-COUPLING-FIXED ---> SOLO SIRVE CON RLEN = DOUBLE PRECISION, CON SINGLE PRECISION NO FUCNIONA COMO DEBERIA

LA VERSION ORIGINAL FUNCIONA CON SINGLE Y CON DOUBLE PRECISION INDIFERENTEMENTE BIEN, PERO ESTA VERSION TELEMAC-COUPLING SOLO FUNCIONA BIEN CON DOUBLE PRECISION

DEFINITIVAMENTE FUNCIONA BIEN CON PRECISION DOBLE, SE COMPARO CONTRA LOS RESULTADOS DE LA VERSION ORIGINAL PARA 1, 3 y 10 PASOS DE TIEMPO PARA UN tf DE 1 ANO, Y PARA 2 ANOS
